
Note: No compatibility mode selected!


Circuit: *title: delay meas.

Warning: Model issue on line 3 :
  .model nfet nmos ( level=49 version=3.1 tnom=27 tox=7.6e-9 xj=1.5e-7 nch ...
unrecognized parameter (xl) - ignored
unrecognized parameter (xw) - ignored
Warning: Model issue on line 5 :
  .model pfet pmos ( level=49 version=3.1 tnom=27 tox=7.6e-9 xj=1.5e-7 nch ...
unrecognized parameter (xl) - ignored
unrecognized parameter (xw) - ignored
Warning: .OPTION AUTOSTOP will not be effective because one of 'max|min|avg|rms|integ' is used in .meas
         AUTOSTOP being disabled...
Doing analysis at TEMP = 25.000000 and TNOM = 27.000000

Warning: Pd = 0 is less than W.
Warning: Ps = 0 is less than W.
Warning: Pd = 0 is less than W.
Warning: Ps = 0 is less than W.

Initial Transient Solution
--------------------------

Node                                   Voltage
----                                   -------
vdd_dyn                                    3.3
vss_dyn                                      0
vnw_dyn                                    3.3
vpw_dyn                                      0
vout                               2.04581e-08
wout                               2.04581e-08
vin                                          0
vhigh                                      3.3
vlow                                         0
vlow#branch                                  0
vhigh#branch                                 0
vin#branch                                   0
vocap#branch                                 0
vpw_dyn#branch                               0
vnw_dyn#branch                               0
vss_dyn#branch                     2.67803e-11
vdd_dyn#branch                    -4.77501e-11


No. of Data Rows : 166688

  Measurements for Transient Analysis

prop_in_out         =  1.034482e-09 targ=  1.284482e-09 trig=  2.500000e-10
trans_out           =  1.459383e-09 targ=  2.148764e-09 trig=  6.893812e-10
q_in_dyn            =   -1.10671e-13 from=  1.68333e-10 to=  4.51319e-09
q_out_dyn           =   1.61673e-12 from=  1.68333e-10 to=  4.51319e-08
q_vdd_dyn           =   -1.66277e-12 from=  1.68333e-10 to=  4.51319e-08
q_vss_dyn           =   1.76506e-12 from=  1.68333e-10 to=  4.51319e-08
i_vdd_leak          =  -4.775050e-11 from=  1.666667e-11 to=  1.676667e-10
i_vss_leak          =  2.678047e-11 from=  1.666667e-11 to=  1.676667e-10
i_in_leak           =  1.263040e-16 from=  1.666667e-11 to=  1.676667e-10


Total analysis time (seconds) = 2.598

Total elapsed time (seconds) = 2.604 

Total DRAM available = 128432.770 MB.
DRAM currently available = 46503.512 MB.
Maximum ngspice program size =   86.934 MB.
Current ngspice program size =   14.410 MB.

Shared ngspice pages =    4.039 MB.
Text (code) pages =    7.465 MB.
Stack = 0 bytes.
Library pages =   10.379 MB.

