
Note: No compatibility mode selected!


Circuit: *title: delay meas.

Warning: Model issue on line 3 :
  .model nfet nmos ( level=49 version=3.1 tnom=27 tox=7.6e-9 xj=1.5e-7 nch ...
unrecognized parameter (xl) - ignored
unrecognized parameter (xw) - ignored
Warning: Model issue on line 5 :
  .model pfet pmos ( level=49 version=3.1 tnom=27 tox=7.6e-9 xj=1.5e-7 nch ...
unrecognized parameter (xl) - ignored
unrecognized parameter (xw) - ignored
Warning: .OPTION AUTOSTOP will not be effective because one of 'max|min|avg|rms|integ' is used in .meas
         AUTOSTOP being disabled...
Doing analysis at TEMP = 25.000000 and TNOM = 27.000000

Warning: Pd = 0 is less than W.
Warning: Ps = 0 is less than W.
Warning: Pd = 0 is less than W.
Warning: Ps = 0 is less than W.

Initial Transient Solution
--------------------------

Node                                   Voltage
----                                   -------
vdd_dyn                                    3.3
vss_dyn                                      0
vnw_dyn                                    3.3
vpw_dyn                                      0
vout                               1.06893e-08
wout                               1.06893e-08
vin                                        3.3
vhigh                                      3.3
vlow                                         0
vlow#branch                                  0
vhigh#branch                                 0
vin#branch                                   0
vocap#branch                                 0
vpw_dyn#branch                               0
vnw_dyn#branch                               0
vss_dyn#branch                     1.01885e-11
vdd_dyn#branch                    -1.34885e-11


No. of Data Rows : 166688

  Measurements for Transient Analysis

prop_in_out         =  1.003525e-10 targ=  3.503525e-10 trig=  2.500000e-10
trans_out           =  8.112033e-11 targ=  3.934781e-10 trig=  3.123577e-10
q_in_dyn            =   5.98210e-14 from=  1.68333e-10 to=  4.97283e-10
q_out_dyn           =   3.30098e-14 from=  1.68333e-10 to=  4.97283e-09
q_vdd_dyn           =   -1.08148e-13 from=  1.68333e-10 to=  4.97283e-09
q_vss_dyn           =   1.40625e-14 from=  1.68333e-10 to=  4.97283e-09
i_vdd_leak          =  -1.348849e-11 from=  1.666667e-11 to=  1.676667e-10
i_vss_leak          =  1.018849e-11 from=  1.666667e-11 to=  1.676667e-10
i_in_leak           =  4.088834e-20 from=  1.666667e-11 to=  1.676667e-10


Total analysis time (seconds) = 1.248

Total elapsed time (seconds) = 1.257 

Total DRAM available = 128432.770 MB.
DRAM currently available = 46632.191 MB.
Maximum ngspice program size =   86.906 MB.
Current ngspice program size =   14.387 MB.

Shared ngspice pages =    4.039 MB.
Text (code) pages =    7.465 MB.
Stack = 0 bytes.
Library pages =   10.352 MB.

