
Note: No compatibility mode selected!


Circuit: *title: delay meas.

Warning: Model issue on line 3 :
  .model nfet nmos ( level=49 version=3.1 tnom=27 tox=7.6e-9 xj=1.5e-7 nch ...
unrecognized parameter (xl) - ignored
unrecognized parameter (xw) - ignored
Warning: Model issue on line 5 :
  .model pfet pmos ( level=49 version=3.1 tnom=27 tox=7.6e-9 xj=1.5e-7 nch ...
unrecognized parameter (xl) - ignored
unrecognized parameter (xw) - ignored
Warning: .OPTION AUTOSTOP will not be effective because one of 'max|min|avg|rms|integ' is used in .meas
         AUTOSTOP being disabled...
Doing analysis at TEMP = 25.000000 and TNOM = 27.000000

Warning: Pd = 0 is less than W.
Warning: Ps = 0 is less than W.
Warning: Pd = 0 is less than W.
Warning: Ps = 0 is less than W.

Initial Transient Solution
--------------------------

Node                                   Voltage
----                                   -------
vdd_dyn                                    3.3
vss_dyn                                      0
vnw_dyn                                    3.3
vpw_dyn                                      0
vout                                       3.3
wout                                       3.3
vin                                          0
vhigh                                      3.3
vlow                                         0
vlow#branch                                  0
vhigh#branch                                 0
vin#branch                                   0
vocap#branch                                 0
vpw_dyn#branch                               0
vnw_dyn#branch                               0
vss_dyn#branch                    -3.05898e-12
vdd_dyn#branch                    -1.01411e-11


No. of Data Rows : 166688

  Measurements for Transient Analysis

prop_in_out         =  9.033703e-10 targ=  1.153370e-09 trig=  2.500000e-10
trans_out           =  1.194475e-09 targ=  1.824667e-09 trig=  6.301915e-10
q_in_dyn            =   -4.54558e-14 from=  1.68333e-10 to=  3.46114e-09
q_out_dyn           =   -1.61697e-12 from=  1.68333e-10 to=  3.46114e-08
q_vdd_dyn           =   9.14834e-15 from=  1.68333e-10 to=  3.46114e-08
q_vss_dyn           =   3.76545e-14 from=  1.68333e-10 to=  3.46114e-08
i_vdd_leak          =  -9.971230e-12 from=  1.666667e-11 to=  1.676667e-10
i_vss_leak          =  -3.226876e-12 from=  1.666667e-11 to=  1.676667e-10
i_in_leak           =  -1.731609e-15 from=  1.666667e-11 to=  1.676667e-10


Total analysis time (seconds) = 0.787

Total elapsed time (seconds) = 0.795 

Total DRAM available = 128432.770 MB.
DRAM currently available = 51920.297 MB.
Maximum ngspice program size =   86.906 MB.
Current ngspice program size =   14.383 MB.

Shared ngspice pages =    4.039 MB.
Text (code) pages =    7.465 MB.
Stack = 0 bytes.
Library pages =   10.352 MB.

