
Note: No compatibility mode selected!


Circuit: *title: delay meas.

Warning: Model issue on line 3 :
  .model nfet nmos ( level=49 version=3.1 tnom=27 tox=7.6e-9 xj=1.5e-7 nch ...
unrecognized parameter (xl) - ignored
unrecognized parameter (xw) - ignored
Warning: Model issue on line 5 :
  .model pfet pmos ( level=49 version=3.1 tnom=27 tox=7.6e-9 xj=1.5e-7 nch ...
unrecognized parameter (xl) - ignored
unrecognized parameter (xw) - ignored
Warning: .OPTION AUTOSTOP will not be effective because one of 'max|min|avg|rms|integ' is used in .meas
         AUTOSTOP being disabled...
Doing analysis at TEMP = 25.000000 and TNOM = 27.000000

Warning: Pd = 0 is less than W.
Warning: Ps = 0 is less than W.
Warning: Pd = 0 is less than W.
Warning: Ps = 0 is less than W.

Initial Transient Solution
--------------------------

Node                                   Voltage
----                                   -------
vdd_dyn                                    3.3
vss_dyn                                      0
vnw_dyn                                    3.3
vpw_dyn                                      0
vout                               6.95348e-09
wout                               6.95348e-09
vin                                        3.3
vhigh                                      3.3
vlow                                         0
vlow#branch                                  0
vhigh#branch                                 0
vin#branch                                   0
vocap#branch                       8.07794e-28
vpw_dyn#branch                               0
vnw_dyn#branch                               0
vss_dyn#branch                     6.73924e-12
vdd_dyn#branch                    -6.73924e-12


No. of Data Rows : 166688

  Measurements for Transient Analysis

prop_in_out         =  1.036337e-09 targ=  1.286337e-09 trig=  2.500000e-10
trans_out           =  1.495264e-09 targ=  2.167015e-09 trig=  6.717509e-10
q_in_dyn            =   4.52142e-14 from=  1.68333e-10 to=  4.50773e-09
q_out_dyn           =   1.61707e-12 from=  1.68333e-10 to=  4.50773e-08
q_vdd_dyn           =   -1.65717e-12 from=  1.68333e-10 to=  4.50773e-08
q_vss_dyn           =   1.61059e-12 from=  1.68333e-10 to=  4.50773e-08
i_vdd_leak          =  -6.739244e-12 from=  1.666667e-11 to=  1.676667e-10
i_vss_leak          =  6.739245e-12 from=  1.666667e-11 to=  1.676667e-10
i_in_leak           =  -5.424047e-19 from=  1.666667e-11 to=  1.676667e-10


Total analysis time (seconds) = 0.819

Total elapsed time (seconds) = 0.826 

Total DRAM available = 128432.770 MB.
DRAM currently available = 51902.332 MB.
Maximum ngspice program size =   86.902 MB.
Current ngspice program size =   14.383 MB.

Shared ngspice pages =    4.039 MB.
Text (code) pages =    7.465 MB.
Stack = 0 bytes.
Library pages =   10.348 MB.

