
Note: No compatibility mode selected!


Circuit: *title: delay meas.

Warning: Model issue on line 3 :
  .model nfet nmos ( level=49 version=3.1 tnom=27 tox=7.6e-9 xj=1.5e-7 nch ...
unrecognized parameter (xl) - ignored
unrecognized parameter (xw) - ignored
Warning: Model issue on line 5 :
  .model pfet pmos ( level=49 version=3.1 tnom=27 tox=7.6e-9 xj=1.5e-7 nch ...
unrecognized parameter (xl) - ignored
unrecognized parameter (xw) - ignored
Warning: .OPTION AUTOSTOP will not be effective because one of 'max|min|avg|rms|integ' is used in .meas
         AUTOSTOP being disabled...
Doing analysis at TEMP = 25.000000 and TNOM = 27.000000

Warning: Pd = 0 is less than W.
Warning: Ps = 0 is less than W.
Warning: Pd = 0 is less than W.
Warning: Ps = 0 is less than W.

Initial Transient Solution
--------------------------

Node                                   Voltage
----                                   -------
vdd_dyn                                    3.3
vss_dyn                                      0
vnw_dyn                                    3.3
vpw_dyn                                      0
vout                               2.10251e-08
wout                               2.10251e-08
vin                                          0
vhigh                                      3.3
vlow                                         0
vlow#branch                                  0
vhigh#branch                                 0
vin#branch                                   0
vocap#branch                      -3.23117e-27
vpw_dyn#branch                               0
vnw_dyn#branch                               0
vss_dyn#branch                     1.73252e-11
vdd_dyn#branch                    -5.15108e-11


No. of Data Rows : 8166688

  Measurements for Transient Analysis

prop_in_out         =  1.363986e-10 targ=  1.238640e-08 trig=  1.225000e-08
trans_out           =  1.246114e-10 targ=  1.244893e-08 trig=  1.232432e-08
q_in_dyn            =   -5.27715e-14 from=  8.24833e-09 to=  1.27908e-08
q_out_dyn           =   3.29642e-14 from=  8.24833e-09 to=  1.27908e-07
q_vdd_dyn           =   -1.05019e-12 from=  8.24833e-09 to=  1.27908e-07
q_vss_dyn           =   1.13093e-12 from=  8.24833e-09 to=  1.27908e-07
i_vdd_leak          =  -5.151154e-11 from=  8.166667e-10 to=  8.167667e-09
i_vss_leak          =  1.732594e-11 from=  8.166667e-10 to=  8.167667e-09
i_in_leak           =  -2.490396e-17 from=  8.166667e-10 to=  8.167667e-09


Total analysis time (seconds) = 130.183

Total elapsed time (seconds) = 130.191 

Total DRAM available = 128432.770 MB.
DRAM currently available = 46218.531 MB.
Maximum ngspice program size =  514.156 MB.
Current ngspice program size =  441.531 MB.

Shared ngspice pages =    4.039 MB.
Text (code) pages =    7.465 MB.
Stack = 0 bytes.
Library pages =  437.602 MB.

