
Note: No compatibility mode selected!


Circuit: *title: delay meas.

Warning: Model issue on line 3 :
  .model nfet nmos ( level=49 version=3.1 tnom=27 tox=7.6e-9 xj=1.5e-7 nch ...
unrecognized parameter (xl) - ignored
unrecognized parameter (xw) - ignored
Warning: Model issue on line 5 :
  .model pfet pmos ( level=49 version=3.1 tnom=27 tox=7.6e-9 xj=1.5e-7 nch ...
unrecognized parameter (xl) - ignored
unrecognized parameter (xw) - ignored
Warning: .OPTION AUTOSTOP will not be effective because one of 'max|min|avg|rms|integ' is used in .meas
         AUTOSTOP being disabled...
Doing analysis at TEMP = 25.000000 and TNOM = 27.000000

Warning: Pd = 0 is less than W.
Warning: Ps = 0 is less than W.
Warning: Pd = 0 is less than W.
Warning: Ps = 0 is less than W.

Initial Transient Solution
--------------------------

Node                                   Voltage
----                                   -------
vdd_dyn                                    3.3
vss_dyn                                      0
vnw_dyn                                    3.3
vpw_dyn                                      0
vout                                       3.3
wout                                       3.3
vin                                          0
vhigh                                      3.3
vlow                                         0
vlow#branch                                  0
vhigh#branch                                 0
vin#branch                                   0
vocap#branch                                 0
vpw_dyn#branch                               0
vnw_dyn#branch                               0
vss_dyn#branch                    -2.81797e-12
vdd_dyn#branch                    -2.15765e-11


No. of Data Rows : 8166688

  Measurements for Transient Analysis

prop_in_out         =  2.026715e-10 targ=  1.245267e-08 trig=  1.225000e-08
trans_out           =  5.844672e-10 targ=  1.265926e-08 trig=  1.207479e-08
q_in_dyn            =   -6.47824e-14 from=  8.24833e-09 to=  1.41904e-08
q_out_dyn           =   -3.30724e-14 from=  8.24833e-09 to=  1.41904e-07
q_vdd_dyn           =   -4.92440e-13 from=  8.24833e-09 to=  1.41904e-07
q_vss_dyn           =   5.72643e-13 from=  8.24833e-09 to=  1.41904e-07
i_vdd_leak          =  -2.157649e-11 from=  8.166667e-10 to=  8.167667e-09
i_vss_leak          =  -2.817968e-12 from=  8.166667e-10 to=  8.167667e-09
i_in_leak           =  1.463793e-18 from=  8.166667e-10 to=  8.167667e-09


Total analysis time (seconds) = 60.134

Total elapsed time (seconds) = 60.143 

Total DRAM available = 128432.770 MB.
DRAM currently available = 46201.645 MB.
Maximum ngspice program size =  514.148 MB.
Current ngspice program size =  441.508 MB.

Shared ngspice pages =    4.039 MB.
Text (code) pages =    7.465 MB.
Stack = 0 bytes.
Library pages =  437.594 MB.

