
Note: No compatibility mode selected!


Circuit: *title: delay meas.

Warning: Model issue on line 3 :
  .model nfet nmos ( level=49 version=3.1 tnom=27 tox=7.6e-9 xj=1.5e-7 nch ...
unrecognized parameter (xl) - ignored
unrecognized parameter (xw) - ignored
Warning: Model issue on line 5 :
  .model pfet pmos ( level=49 version=3.1 tnom=27 tox=7.6e-9 xj=1.5e-7 nch ...
unrecognized parameter (xl) - ignored
unrecognized parameter (xw) - ignored
Warning: .OPTION AUTOSTOP will not be effective because one of 'max|min|avg|rms|integ' is used in .meas
         AUTOSTOP being disabled...
Doing analysis at TEMP = 25.000000 and TNOM = 27.000000

Warning: Pd = 0 is less than W.
Warning: Ps = 0 is less than W.
Warning: Pd = 0 is less than W.
Warning: Ps = 0 is less than W.

Initial Transient Solution
--------------------------

Node                                   Voltage
----                                   -------
vdd_dyn                                    3.3
vss_dyn                                      0
vnw_dyn                                    3.3
vpw_dyn                                      0
vout                               2.10259e-08
wout                               2.10259e-08
vin                                          0
vhigh                                      3.3
vlow                                         0
vlow#branch                                  0
vhigh#branch                                 0
vin#branch                                   0
vocap#branch                       2.58494e-26
vpw_dyn#branch                               0
vnw_dyn#branch                               0
vss_dyn#branch                     1.94471e-11
vdd_dyn#branch                    -4.70227e-11


No. of Data Rows : 8166688

  Measurements for Transient Analysis

prop_in_out         =  1.098596e-09 targ=  1.334860e-08 trig=  1.225000e-08
trans_out           =  1.481788e-09 targ=  1.421945e-08 trig=  1.273766e-08
q_in_dyn            =   -1.72734e-13 from=  8.24833e-09 to=  1.65994e-08
q_out_dyn           =   1.61696e-12 from=  8.24833e-09 to=  1.65994e-07
q_vdd_dyn           =   -2.62324e-12 from=  8.24833e-09 to=  1.65994e-07
q_vss_dyn           =   2.74533e-12 from=  8.24833e-09 to=  1.65994e-07
i_vdd_leak          =  -4.702269e-11 from=  8.166667e-10 to=  8.167667e-09
i_vss_leak          =  1.944707e-11 from=  8.166667e-10 to=  8.167667e-09
i_in_leak           =  1.376255e-18 from=  8.166667e-10 to=  8.167667e-09


Total analysis time (seconds) = 126.543

Total elapsed time (seconds) = 126.550 

Total DRAM available = 128432.770 MB.
DRAM currently available = 45694.418 MB.
Maximum ngspice program size =  514.148 MB.
Current ngspice program size =  441.535 MB.

Shared ngspice pages =    4.039 MB.
Text (code) pages =    7.465 MB.
Stack = 0 bytes.
Library pages =  437.594 MB.

