
Note: No compatibility mode selected!


Circuit: *title: delay meas.

Warning: Model issue on line 3 :
  .model nfet nmos ( level=49 version=3.1 tnom=27 tox=7.6e-9 xj=1.5e-7 nch ...
unrecognized parameter (xl) - ignored
unrecognized parameter (xw) - ignored
Warning: Model issue on line 5 :
  .model pfet pmos ( level=49 version=3.1 tnom=27 tox=7.6e-9 xj=1.5e-7 nch ...
unrecognized parameter (xl) - ignored
unrecognized parameter (xw) - ignored
Warning: .OPTION AUTOSTOP will not be effective because one of 'max|min|avg|rms|integ' is used in .meas
         AUTOSTOP being disabled...
Doing analysis at TEMP = 25.000000 and TNOM = 27.000000

Warning: Pd = 0 is less than W.
Warning: Ps = 0 is less than W.
Warning: Pd = 0 is less than W.
Warning: Ps = 0 is less than W.

Initial Transient Solution
--------------------------

Node                                   Voltage
----                                   -------
vdd_dyn                                    3.3
vss_dyn                                      0
vnw_dyn                                    3.3
vpw_dyn                                      0
vout                               3.07129e-08
wout                               3.07129e-08
vin                                        3.3
vhigh                                      3.3
vlow                                         0
vlow#branch                                  0
vhigh#branch                                 0
vin#branch                                   0
vocap#branch                                 0
vpw_dyn#branch                               0
vnw_dyn#branch                               0
vss_dyn#branch                     2.97666e-11
vdd_dyn#branch                    -4.47785e-11


No. of Data Rows : 166688

  Measurements for Transient Analysis

prop_in_out         =  1.020210e-09 targ=  1.270210e-09 trig=  2.500000e-10
trans_out           =  1.450156e-09 targ=  2.141431e-09 trig=  6.912755e-10
q_in_dyn            =   1.05282e-13 from=  1.68333e-10 to=  4.59572e-09
q_out_dyn           =   1.61706e-12 from=  1.68333e-10 to=  4.59572e-08
q_vdd_dyn           =   -1.78867e-12 from=  1.68333e-10 to=  4.59572e-08
q_vss_dyn           =   1.61051e-12 from=  1.68333e-10 to=  4.59572e-08
i_vdd_leak          =  -4.477963e-11 from=  1.666667e-11 to=  1.676667e-10
i_vss_leak          =  2.976742e-11 from=  1.666667e-11 to=  1.676667e-10
i_in_leak           =  1.349387e-16 from=  1.666667e-11 to=  1.676667e-10


Total analysis time (seconds) = 2.127

Total elapsed time (seconds) = 2.135 

Total DRAM available = 128432.770 MB.
DRAM currently available = 46672.781 MB.
Maximum ngspice program size =   86.926 MB.
Current ngspice program size =   14.398 MB.

Shared ngspice pages =    4.039 MB.
Text (code) pages =    7.465 MB.
Stack = 0 bytes.
Library pages =   10.371 MB.

