
Note: No compatibility mode selected!


Circuit: *title: delay meas.

Warning: Model issue on line 3 :
  .model nfet nmos ( level=49 version=3.1 tnom=27 tox=7.6e-9 xj=1.5e-7 nch ...
unrecognized parameter (xl) - ignored
unrecognized parameter (xw) - ignored
Warning: Model issue on line 5 :
  .model pfet pmos ( level=49 version=3.1 tnom=27 tox=7.6e-9 xj=1.5e-7 nch ...
unrecognized parameter (xl) - ignored
unrecognized parameter (xw) - ignored
Warning: .OPTION AUTOSTOP will not be effective because one of 'max|min|avg|rms|integ' is used in .meas
         AUTOSTOP being disabled...
Doing analysis at TEMP = 25.000000 and TNOM = 27.000000

Warning: Pd = 0 is less than W.
Warning: Ps = 0 is less than W.
Warning: Pd = 0 is less than W.
Warning: Ps = 0 is less than W.
Warning: Pd = 0 is less than W.
Warning: Ps = 0 is less than W.

Initial Transient Solution
--------------------------

Node                                   Voltage
----                                   -------
vdd_dyn                                    3.3
vss_dyn                                      0
vnw_dyn                                    3.3
vpw_dyn                                      0
vout                                       3.3
wout                                       3.3
vin                                          0
vhigh                                      3.3
vlow                                         0
vlow#branch                                  0
vhigh#branch                                 0
vin#branch                                   0
vocap#branch                                 0
vpw_dyn#branch                               0
vnw_dyn#branch                               0
vss_dyn#branch                    -2.76643e-12
vdd_dyn#branch                    -2.62025e-11


No. of Data Rows : 166688

  Measurements for Transient Analysis

prop_in_out         =  8.317664e-10 targ=  1.081766e-09 trig=  2.500000e-10
trans_out           =  1.126261e-09 targ=  1.728655e-09 trig=  6.023942e-10
q_in_dyn            =   -9.05134e-14 from=  1.68333e-10 to=  3.40116e-09
q_out_dyn           =   -1.61702e-12 from=  1.68333e-10 to=  3.40116e-08
q_vdd_dyn           =   1.30751e-14 from=  1.68333e-10 to=  3.40116e-08
q_vss_dyn           =   1.34819e-13 from=  1.68333e-10 to=  3.40116e-08
i_vdd_leak          =  -2.620247e-11 from=  1.666667e-11 to=  1.676667e-10
i_vss_leak          =  -2.766424e-12 from=  1.666667e-11 to=  1.676667e-10
i_in_leak           =  4.007028e-19 from=  1.666667e-11 to=  1.676667e-10


Total analysis time (seconds) = 1.563

Total elapsed time (seconds) = 1.571 

Total DRAM available = 128432.770 MB.
DRAM currently available = 46623.469 MB.
Maximum ngspice program size =   86.914 MB.
Current ngspice program size =   14.391 MB.

Shared ngspice pages =    4.039 MB.
Text (code) pages =    7.465 MB.
Stack = 0 bytes.
Library pages =   10.359 MB.

