
Note: No compatibility mode selected!


Circuit: *title: delay meas.

Warning: Model issue on line 3 :
  .model nfet nmos ( level=49 version=3.1 tnom=27 tox=7.6e-9 xj=1.5e-7 nch ...
unrecognized parameter (xl) - ignored
unrecognized parameter (xw) - ignored
Warning: Model issue on line 5 :
  .model pfet pmos ( level=49 version=3.1 tnom=27 tox=7.6e-9 xj=1.5e-7 nch ...
unrecognized parameter (xl) - ignored
unrecognized parameter (xw) - ignored
Warning: .OPTION AUTOSTOP will not be effective because one of 'max|min|avg|rms|integ' is used in .meas
         AUTOSTOP being disabled...
Doing analysis at TEMP = 25.000000 and TNOM = 27.000000

Warning: Pd = 0 is less than W.
Warning: Ps = 0 is less than W.
Warning: Pd = 0 is less than W.
Warning: Ps = 0 is less than W.

Initial Transient Solution
--------------------------

Node                                   Voltage
----                                   -------
vdd_dyn                                    3.3
vss_dyn                                      0
vnw_dyn                                    3.3
vpw_dyn                                      0
vout                                       3.3
wout                                       3.3
vin                                          0
vhigh                                      3.3
vlow                                         0
vlow#branch                                  0
vhigh#branch                                 0
vin#branch                                   0
vocap#branch                      -5.03441e-20
vpw_dyn#branch                               0
vnw_dyn#branch                               0
vss_dyn#branch                     5.17902e-12
vdd_dyn#branch                    -6.20138e-11


No. of Data Rows : 166688

  Measurements for Transient Analysis

prop_in_out         =  5.692653e-11 targ=  3.069265e-10 trig=  2.500000e-10
trans_out           =  5.247585e-11 targ=  3.400732e-10 trig=  2.875974e-10
q_in_dyn            =   -1.86070e-13 from=  1.68333e-10 to=  4.21536e-10
q_out_dyn           =   -3.30979e-14 from=  1.68333e-10 to=  4.21536e-09
q_vdd_dyn           =   5.82966e-14 from=  1.68333e-10 to=  4.21536e-09
q_vss_dyn           =   1.33371e-13 from=  1.68333e-10 to=  4.21536e-09
i_vdd_leak          =  -6.201156e-11 from=  1.666667e-11 to=  1.676667e-10
i_vss_leak          =  5.179021e-12 from=  1.666667e-11 to=  1.676667e-10
i_in_leak           =  -3.173285e-17 from=  1.666667e-11 to=  1.676667e-10


Total analysis time (seconds) = 2.587

Total elapsed time (seconds) = 2.596 

Total DRAM available = 128432.770 MB.
DRAM currently available = 46554.684 MB.
Maximum ngspice program size =   86.934 MB.
Current ngspice program size =   14.414 MB.

Shared ngspice pages =    4.039 MB.
Text (code) pages =    7.465 MB.
Stack = 0 bytes.
Library pages =   10.379 MB.

