
Note: No compatibility mode selected!


Circuit: *title: delay meas.

Warning: Model issue on line 3 :
  .model nfet nmos ( level=49 version=3.1 tnom=27 tox=7.6e-9 xj=1.5e-7 nch ...
unrecognized parameter (xl) - ignored
unrecognized parameter (xw) - ignored
Warning: Model issue on line 5 :
  .model pfet pmos ( level=49 version=3.1 tnom=27 tox=7.6e-9 xj=1.5e-7 nch ...
unrecognized parameter (xl) - ignored
unrecognized parameter (xw) - ignored
Warning: .OPTION AUTOSTOP will not be effective because one of 'max|min|avg|rms|integ' is used in .meas
         AUTOSTOP being disabled...
Doing analysis at TEMP = 25.000000 and TNOM = 27.000000

Warning: Pd = 0 is less than W.
Warning: Ps = 0 is less than W.
Warning: Pd = 0 is less than W.
Warning: Ps = 0 is less than W.
Warning: Pd = 0 is less than W.
Warning: Ps = 0 is less than W.

Initial Transient Solution
--------------------------

Node                                   Voltage
----                                   -------
vdd_dyn                                    3.3
vss_dyn                                      0
vnw_dyn                                    3.3
vpw_dyn                                      0
vout                                       3.3
wout                                       3.3
vin                                        3.3
vhigh                                      3.3
vlow                                         0
vlow#branch                                  0
vhigh#branch                                 0
vin#branch                                   0
vocap#branch                      -4.33681e-19
vpw_dyn#branch                               0
vnw_dyn#branch                               0
vss_dyn#branch                    -6.45253e-13
vdd_dyn#branch                    -2.04392e-11


No. of Data Rows : 166688

  Measurements for Transient Analysis

prop_in_out         =  1.328539e-10 targ=  3.828539e-10 trig=  2.500000e-10
trans_out           =  4.782842e-11 targ=  4.072753e-10 trig=  3.594469e-10
q_in_dyn            =   7.51990e-14 from=  1.68333e-10 to=  4.68254e-10
q_out_dyn           =   -3.29978e-14 from=  1.68333e-10 to=  4.68254e-09
q_vdd_dyn           =   -1.02306e-13 from=  1.68333e-10 to=  4.68254e-09
q_vss_dyn           =   2.49928e-14 from=  1.68333e-10 to=  4.68254e-09
i_vdd_leak          =  -2.043920e-11 from=  1.666667e-11 to=  1.676667e-10
i_vss_leak          =  -6.452525e-13 from=  1.666667e-11 to=  1.676667e-10
i_in_leak           =  7.355977e-19 from=  1.666667e-11 to=  1.676667e-10


Total analysis time (seconds) = 1.561

Total elapsed time (seconds) = 1.569 

Total DRAM available = 128432.770 MB.
DRAM currently available = 46640.121 MB.
Maximum ngspice program size =   86.914 MB.
Current ngspice program size =   14.391 MB.

Shared ngspice pages =    4.039 MB.
Text (code) pages =    7.465 MB.
Stack = 0 bytes.
Library pages =   10.359 MB.

