
Note: No compatibility mode selected!


Circuit: *title: delay meas.

Warning: Model issue on line 3 :
  .model nfet nmos ( level=49 version=3.1 tnom=27 tox=7.6e-9 xj=1.5e-7 nch ...
unrecognized parameter (xl) - ignored
unrecognized parameter (xw) - ignored
Warning: Model issue on line 5 :
  .model pfet pmos ( level=49 version=3.1 tnom=27 tox=7.6e-9 xj=1.5e-7 nch ...
unrecognized parameter (xl) - ignored
unrecognized parameter (xw) - ignored
Warning: .OPTION AUTOSTOP will not be effective because one of 'max|min|avg|rms|integ' is used in .meas
         AUTOSTOP being disabled...
Doing analysis at TEMP = 25.000000 and TNOM = 27.000000

Warning: Pd = 0 is less than W.
Warning: Ps = 0 is less than W.
Warning: Pd = 0 is less than W.
Warning: Ps = 0 is less than W.

Initial Transient Solution
--------------------------

Node                                   Voltage
----                                   -------
vdd_dyn                                    3.3
vss_dyn                                      0
vnw_dyn                                    3.3
vpw_dyn                                      0
vout                                       3.3
wout                                       3.3
vin                                          0
vhigh                                      3.3
vlow                                         0
vlow#branch                                  0
vhigh#branch                                 0
vin#branch                                   0
vocap#branch                      -1.87268e-20
vpw_dyn#branch                               0
vnw_dyn#branch                               0
vss_dyn#branch                    -3.36989e-12
vdd_dyn#branch                    -6.00934e-11


No. of Data Rows : 166688

  Measurements for Transient Analysis

prop_in_out         =  8.153056e-10 targ=  1.065306e-09 trig=  2.500000e-10
trans_out           =  1.113920e-09 targ=  1.706527e-09 trig=  5.926069e-10
q_in_dyn            =   -1.83348e-13 from=  1.68333e-10 to=  3.36789e-09
q_out_dyn           =   -1.61710e-12 from=  1.68333e-10 to=  3.36789e-08
q_vdd_dyn           =   -5.08774e-15 from=  1.68333e-10 to=  3.36789e-08
q_vss_dyn           =   2.22338e-13 from=  1.68333e-10 to=  3.36789e-08
i_vdd_leak          =  -6.009110e-11 from=  1.666667e-11 to=  1.676667e-10
i_vss_leak          =  -3.369933e-12 from=  1.666667e-11 to=  1.676667e-10
i_in_leak           =  -5.540363e-17 from=  1.666667e-11 to=  1.676667e-10


Total analysis time (seconds) = 2.59

Total elapsed time (seconds) = 2.598 

Total DRAM available = 128432.770 MB.
DRAM currently available = 46505.727 MB.
Maximum ngspice program size =   86.930 MB.
Current ngspice program size =   14.410 MB.

Shared ngspice pages =    4.039 MB.
Text (code) pages =    7.465 MB.
Stack = 0 bytes.
Library pages =   10.375 MB.

